Version 4
SHEET 1 3420 3584
WIRE -1088 592 -1088 560
WIRE -992 608 -1056 608
WIRE -1424 624 -1664 624
WIRE -1296 624 -1424 624
WIRE -1184 624 -1216 624
WIRE -1120 624 -1184 624
WIRE -1024 640 -1056 640
WIRE -992 640 -992 608
WIRE -1664 672 -1664 624
WIRE -1424 672 -1424 624
WIRE -1184 672 -1184 624
WIRE -1088 672 -1088 656
WIRE -1952 720 -2048 720
WIRE -1792 720 -1872 720
WIRE -1728 720 -1792 720
WIRE -1344 720 -1360 720
WIRE -1344 736 -1344 720
WIRE -496 736 -496 672
WIRE -2048 768 -2048 720
WIRE -1792 768 -1792 720
WIRE -1664 816 -1664 768
WIRE -1184 816 -1184 736
WIRE -1184 816 -1664 816
WIRE -1024 816 -1024 640
WIRE -1024 816 -1184 816
WIRE -496 864 -496 816
WIRE -2048 880 -2048 848
WIRE -1792 880 -1792 848
WIRE -1664 896 -1664 816
WIRE 512 896 480 896
WIRE 752 896 592 896
WIRE 480 992 480 896
WIRE 528 992 480 992
WIRE 656 992 592 992
WIRE -2256 1024 -2304 1024
WIRE -1664 1024 -1664 976
WIRE -2304 1040 -2304 1024
WIRE -2256 1056 -2256 1024
WIRE 544 1104 544 1088
WIRE 208 1120 144 1120
WIRE 352 1120 272 1120
WIRE 480 1120 480 992
WIRE 480 1120 432 1120
WIRE 512 1120 480 1120
WIRE 656 1136 656 992
WIRE 656 1136 576 1136
WIRE 688 1136 656 1136
WIRE 752 1136 752 896
WIRE 784 1136 752 1136
WIRE -1424 1152 -1424 768
WIRE 512 1152 480 1152
WIRE -2256 1184 -2256 1136
WIRE 544 1184 544 1168
WIRE -1216 1200 -1232 1200
WIRE -1104 1200 -1136 1200
WIRE -304 1232 -464 1232
WIRE 1344 1232 1344 1184
WIRE -608 1248 -608 1216
WIRE -384 1296 -384 1280
WIRE -464 1312 -464 1232
WIRE -416 1312 -464 1312
WIRE -1168 1328 -1168 1312
WIRE -304 1328 -304 1232
WIRE -304 1328 -352 1328
WIRE -272 1328 -304 1328
WIRE 1344 1328 1344 1312
WIRE 1440 1328 1344 1328
WIRE -2064 1344 -2192 1344
WIRE -1920 1344 -2000 1344
WIRE -1760 1344 -1840 1344
WIRE -1616 1344 -1760 1344
WIRE -1520 1344 -1520 1328
WIRE -1232 1344 -1232 1200
WIRE -1232 1344 -1376 1344
WIRE -1200 1344 -1232 1344
WIRE -608 1344 -608 1328
WIRE -416 1344 -608 1344
WIRE -1104 1360 -1104 1200
WIRE -1104 1360 -1136 1360
WIRE -976 1360 -1104 1360
WIRE -1424 1376 -1424 1232
WIRE -1200 1376 -1216 1376
WIRE -608 1376 -608 1344
WIRE -384 1376 -384 1360
WIRE -1376 1408 -1376 1344
WIRE -1376 1408 -1392 1408
WIRE -1216 1408 -1216 1376
WIRE -1168 1424 -1168 1392
WIRE 1344 1424 1344 1408
WIRE -1760 1440 -1760 1424
WIRE 1184 1440 736 1440
WIRE -2192 1472 -2192 1344
WIRE -1616 1472 -1664 1472
WIRE -608 1472 -608 1456
WIRE -1664 1520 -1664 1472
WIRE -1520 1520 -1520 1472
WIRE 1344 1520 1344 1504
WIRE 1568 1552 1568 1536
WIRE 784 1568 784 1552
WIRE 1440 1568 1440 1328
WIRE 1536 1568 1440 1568
WIRE 736 1584 736 1440
WIRE 752 1584 736 1584
WIRE 1680 1584 1600 1584
WIRE 1776 1584 1760 1584
WIRE 1824 1584 1776 1584
WIRE 1856 1584 1824 1584
WIRE 912 1600 816 1600
WIRE 992 1600 976 1600
WIRE 1184 1600 1184 1440
WIRE 1184 1600 1072 1600
WIRE 1312 1600 1184 1600
WIRE 1536 1600 1312 1600
WIRE 496 1616 464 1616
WIRE 624 1616 576 1616
WIRE 752 1616 624 1616
WIRE -2192 1632 -2192 1552
WIRE -1664 1632 -1664 1600
WIRE 1312 1632 1312 1600
WIRE 1776 1632 1776 1584
WIRE 1824 1632 1824 1584
WIRE 1184 1648 1184 1600
WIRE 1568 1648 1568 1616
WIRE 784 1664 784 1632
WIRE 624 1696 624 1616
WIRE 1776 1728 1776 1712
WIRE 1824 1728 1824 1696
WIRE 1824 1728 1776 1728
WIRE 1184 1744 1184 1712
WIRE 1312 1744 1312 1712
WIRE 1776 1744 1776 1728
WIRE 624 1808 624 1760
WIRE 1312 1856 1312 1824
FLAG -2192 1632 0
FLAG -496 672 +9
FLAG -2256 1184 -9
FLAG -2304 1040 0
FLAG -1760 1440 0
FLAG -1664 1632 0
FLAG -1792 880 0
FLAG -1344 736 0
FLAG -1216 1408 0
FLAG -992 640 0
FLAG -1664 1024 -9
FLAG -1520 1520 -9
FLAG -1088 560 -9
FLAG -1168 1424 -9
FLAG -1088 672 +9
FLAG -1520 1328 +9
FLAG -1168 1312 +9
FLAG -2048 880 0
FLAG -976 1360 GTR
FLAG -496 864 0
FLAG -384 1280 +9
FLAG -384 1376 0
FLAG -272 1328 vg
FLAG -608 1472 0
FLAG -608 1216 +9
FLAG 544 1088 +9
FLAG 544 1184 0
FLAG 480 1152 vg
FLAG 144 1120 GTR
FLAG 784 1136 rect
FLAG 784 1552 +9
FLAG 784 1664 0
FLAG 1184 1440 env
FLAG 464 1616 rect
FLAG 1184 1744 vg
FLAG 1312 1856 vg
FLAG 624 1808 vg
FLAG 1568 1536 +9
FLAG 1568 1648 0
FLAG 1344 1520 0
FLAG 1344 1184 +9
FLAG 1856 1584 Open_In
FLAG 1776 1744 0
SYMBOL voltage -2192 1456 R0
SYMATTR InstName V1
SYMATTR Value SINE(0 0.1 440)
SYMBOL voltage -496 720 R0
SYMATTR InstName V2
SYMATTR Value 9
SYMBOL voltage -2256 1040 R0
SYMATTR InstName V3
SYMATTR Value 9
SYMBOL LM13700 -1552 1328 R0
SYMATTR InstName U1
SYMBOL res -1440 1136 R0
SYMATTR InstName R1
SYMATTR Value 4.7k
SYMBOL res -1824 1328 R90
WINDOW 0 0 56 VBottom 2
WINDOW 3 32 56 VTop 2
SYMATTR InstName R2
SYMATTR Value 100k
SYMBOL res -1744 1440 R180
WINDOW 0 36 76 Left 2
WINDOW 3 36 40 Left 2
SYMATTR InstName R3
SYMATTR Value 680
SYMBOL res -1648 1616 R180
WINDOW 0 36 76 Left 2
WINDOW 3 36 40 Left 2
SYMATTR InstName R4
SYMATTR Value 680
SYMBOL cap -2000 1328 R90
WINDOW 0 0 32 VBottom 2
WINDOW 3 32 32 VTop 2
SYMATTR InstName C1
SYMATTR Value 470n
SYMBOL pnp -1360 768 R180
SYMATTR InstName Q1
SYMATTR Value BC857A
SYMBOL pnp -1728 768 M180
SYMATTR InstName Q2
SYMATTR Value BC857A
SYMBOL res -1200 608 R90
WINDOW 0 0 56 VBottom 2
WINDOW 3 32 56 VTop 2
SYMATTR InstName R5
SYMATTR Value 4.7k
SYMBOL res -1856 704 R90
WINDOW 0 0 56 VBottom 2
WINDOW 3 32 56 VTop 2
SYMATTR InstName R6
SYMATTR Value 91k
SYMBOL res -1776 864 R180
WINDOW 0 36 76 Left 2
WINDOW 3 36 40 Left 2
SYMATTR InstName R7
SYMATTR Value 2k7
SYMBOL res -1648 992 R180
WINDOW 0 36 76 Left 2
WINDOW 3 36 40 Left 2
SYMATTR InstName R8
SYMATTR Value 470k
SYMBOL OpAmps/LT1058 -1088 688 R180
SYMATTR InstName U2
SYMBOL cap -1200 672 R0
SYMATTR InstName C2
SYMATTR Value 4.7n
SYMBOL OpAmps/LT1058 -1168 1296 R0
SYMATTR InstName U3
SYMBOL res -1120 1184 R90
WINDOW 0 0 56 VBottom 2
WINDOW 3 32 56 VTop 2
SYMATTR InstName R9
SYMATTR Value 22k
SYMBOL voltage -2048 752 R0
SYMATTR InstName V4
SYMATTR Value PULSE(0 3.3 600m 10m 60m 30m 100m 1)
SYMBOL OpAmps/LT1058 -384 1264 R0
SYMATTR InstName U4
SYMBOL res -624 1232 R0
SYMATTR InstName R10
SYMATTR Value 100k
SYMBOL res -624 1360 R0
SYMATTR InstName R11
SYMATTR Value 100k
SYMBOL OpAmps/LT1058 544 1072 R0
SYMATTR InstName U6
SYMBOL res 448 1104 R90
WINDOW 0 0 56 VBottom 2
WINDOW 3 32 56 VTop 2
SYMATTR InstName R15
SYMATTR Value 100k
SYMBOL diode 688 1120 M90
WINDOW 0 0 32 VBottom 2
WINDOW 3 32 32 VTop 2
SYMATTR InstName D1
SYMATTR Value 1N4148
SYMBOL diode 528 976 M90
WINDOW 0 0 32 VBottom 2
WINDOW 3 32 32 VTop 2
SYMATTR InstName D2
SYMATTR Value 1N4148
SYMBOL res 608 880 R90
WINDOW 0 0 56 VBottom 2
WINDOW 3 32 56 VTop 2
SYMATTR InstName R14
SYMATTR Value 470k
SYMBOL cap 272 1104 R90
WINDOW 0 0 32 VBottom 2
WINDOW 3 32 32 VTop 2
SYMATTR InstName C4
SYMATTR Value 100n
SYMBOL OpAmps/LT1058 784 1536 R0
SYMATTR InstName U8
SYMBOL diode 912 1616 R270
WINDOW 0 32 32 VTop 2
WINDOW 3 0 32 VBottom 2
SYMATTR InstName D3
SYMATTR Value 1N4148
SYMBOL res 976 1616 R270
WINDOW 0 32 56 VTop 2
WINDOW 3 0 56 VBottom 2
SYMATTR InstName R12
SYMATTR Value 1k
SYMBOL cap 1168 1648 R0
SYMATTR InstName C3
SYMATTR Value 1µ
SYMBOL res 1328 1728 R180
WINDOW 0 36 76 Left 2
WINDOW 3 36 40 Left 2
SYMATTR InstName R13
SYMATTR Value 5k6
SYMBOL res 1328 1840 R180
WINDOW 0 36 76 Left 2
WINDOW 3 36 40 Left 2
SYMATTR InstName R19
SYMATTR Value 10k
SYMBOL res 592 1600 R90
WINDOW 0 0 56 VBottom 2
WINDOW 3 32 56 VTop 2
SYMATTR InstName R20
SYMATTR Value 100k
SYMBOL cap 640 1760 R180
WINDOW 0 24 56 Left 2
WINDOW 3 24 8 Left 2
SYMATTR InstName C5
SYMATTR Value 33n
SYMBOL OpAmps/LT1058 1568 1520 R0
SYMATTR InstName U5
SYMBOL res 1328 1216 R0
SYMATTR InstName R16
SYMATTR Value 56k
SYMBOL res 1328 1312 R0
SYMATTR InstName R18
SYMATTR Value 1k
SYMBOL res 1328 1408 R0
SYMATTR InstName R21
SYMATTR Value 56k
SYMBOL res 1776 1568 R90
WINDOW 0 0 56 VBottom 2
WINDOW 3 32 56 VTop 2
SYMATTR InstName R17
SYMATTR Value 180k
SYMBOL res 1792 1728 R180
WINDOW 0 36 76 Left 2
WINDOW 3 36 40 Left 2
SYMATTR InstName R22
SYMATTR Value 100k
SYMBOL cap 1808 1632 R0
SYMATTR InstName C6
SYMATTR Value 22n
TEXT -40 112 Left 2 !.tran 0 800m 600m
TEXT -40 144 Left 2 !.lib lm13700.sub
TEXT -2416 480 Left 2 ;Ignore this it's just a convenient way to simulate a guitar signal
TEXT 1344 1784 Left 2 ;R19 = decay control 10k
TEXT 1016 1352 Left 2 ;R18 = threshold control 10k
RECTANGLE Normal -2420 508 -928 1680 2
