Version 4
SHEET 1 3420 3584
WIRE -496 736 -496 672
WIRE -496 864 -496 816
WIRE -336 928 -336 864
WIRE -336 1040 -336 1008
WIRE -304 1232 -464 1232
WIRE -608 1248 -608 1216
WIRE -384 1296 -384 1280
WIRE -464 1312 -464 1232
WIRE -416 1312 -464 1312
WIRE -304 1328 -304 1232
WIRE -304 1328 -352 1328
WIRE -272 1328 -304 1328
WIRE -608 1344 -608 1328
WIRE -416 1344 -608 1344
WIRE -608 1376 -608 1344
WIRE -384 1376 -384 1360
WIRE -608 1472 -608 1456
WIRE -368 1952 -416 1952
WIRE -240 1952 -288 1952
WIRE -336 2064 -336 2048
WIRE -656 2080 -704 2080
WIRE -544 2080 -592 2080
WIRE -416 2080 -416 1952
WIRE -416 2080 -464 2080
WIRE -368 2080 -416 2080
WIRE 96 2080 96 2064
WIRE -240 2096 -240 1952
WIRE -240 2096 -304 2096
WIRE -192 2096 -240 2096
WIRE -96 2096 -112 2096
WIRE 64 2096 -96 2096
WIRE -368 2112 -400 2112
WIRE 192 2112 128 2112
WIRE 288 2112 272 2112
WIRE -960 2128 -960 2064
WIRE -96 2128 -96 2096
WIRE 64 2128 32 2128
WIRE -336 2144 -336 2128
WIRE 96 2160 96 2144
WIRE 288 2176 288 2112
WIRE -96 2208 -96 2192
WIRE -960 2240 -960 2208
WIRE 288 2288 288 2256
FLAG -496 672 +9
FLAG -496 864 0
FLAG -384 1280 +9
FLAG -384 1376 0
FLAG -272 1328 vg
FLAG -608 1472 0
FLAG -608 1216 +9
FLAG -336 1040 0
FLAG -336 864 gate
FLAG -960 2064 IN
FLAG -336 2048 +9
FLAG -336 2144 0
FLAG -400 2112 vg
FLAG -704 2080 IN
FLAG -960 2240 0
FLAG 96 2064 +9
FLAG 96 2160 0
FLAG 32 2128 vg
FLAG 288 2288 0
FLAG -96 2208 vg
SYMBOL voltage -496 720 R0
SYMATTR InstName V2
SYMATTR Value 9
SYMBOL OpAmps/LT1058 -384 1264 R0
SYMATTR InstName U4
SYMBOL res -624 1232 R0
SYMATTR InstName R10
SYMATTR Value 100k
SYMBOL res -624 1360 R0
SYMATTR InstName R11
SYMATTR Value 100k
SYMBOL voltage -336 912 R0
SYMATTR InstName V1
SYMATTR Value PULSE(3.3 0 650m 100u 100u 90m 150m 1)
SYMBOL voltage -960 2112 R0
SYMATTR InstName V3
SYMATTR Value SINE(0 0.4 220)
SYMBOL OpAmps/LT1058 -336 2032 R0
SYMATTR InstName U1
SYMBOL cap -592 2064 R90
WINDOW 0 0 32 VBottom 2
WINDOW 3 32 32 VTop 2
SYMATTR InstName C1
SYMATTR Value 100n
SYMBOL res -448 2064 R90
WINDOW 0 0 56 VBottom 2
WINDOW 3 32 56 VTop 2
SYMATTR InstName R3
SYMATTR Value 100k
SYMBOL res -272 1936 R90
WINDOW 0 0 56 VBottom 2
WINDOW 3 32 56 VTop 2
SYMATTR InstName R4
SYMATTR Value 220k
SYMBOL res -96 2080 R90
WINDOW 0 0 56 VBottom 2
WINDOW 3 32 56 VTop 2
SYMATTR InstName R1
SYMATTR Value 47k
SYMBOL cap -112 2128 R0
SYMATTR InstName C2
SYMATTR Value 10n
SYMBOL OpAmps/LT1058 96 2048 R0
SYMATTR InstName U2
SYMBOL res 288 2096 R90
WINDOW 0 0 56 VBottom 2
WINDOW 3 32 56 VTop 2
SYMATTR InstName R2
SYMATTR Value 180k
SYMBOL res 304 2272 R180
WINDOW 0 36 76 Left 2
WINDOW 3 36 40 Left 2
SYMATTR InstName R5
SYMATTR Value 100k
TEXT -40 112 Left 2 !.tran 0 800m 600m
